&nam_grid
  NNx = 1,
  NNy = 920884,
  NNsmax = 3,
  NNsoil = 4,
/
&nam_driving
  zzT = 10,
  zzU = 10,
/
&nam_modconf
  NALBEDO = 2,
  NCANMOD = 1,
  NCONDCT = 1,
  NDENSTY = 3,
  NEXCHNG = 2,
  NHYDROL = 2,
  NSNFRAC = 4,
  NRADSBG = 0,
  NZOFFST = 1,
  NOSHDTN = 1,
  LHN_ON = .FALSE.,
/
&nam_modtile
  CTILE = 'forest',
  rtthresh = 0.1,
/
&nam_results
   CLIST_DIAG_RESULTS = 'rotc', 'hsnt', 'swet', 'slqt', 'swtb', 'swtd', 'lwtr', 'romc', 'sbsc',
   CLIST_STATE_RESULTS = 'tsfe', 'scfe',
/

